[{"origin":"https://github.com/DualSPHysics/DualSPHysics","visit":11,"date":"2022-10-05T18:57:32.766564+00:00","status":"full","snapshot":"ceabf462591939d68c8ae5c4ae128d0bc04bac43","type":"git","metadata":{},"origin_visit_url":"https://archive.softwareheritage.org/api/1/origin/https://github.com/DualSPHysics/DualSPHysics/visit/11/","snapshot_url":"https://archive.softwareheritage.org/api/1/snapshot/ceabf462591939d68c8ae5c4ae128d0bc04bac43/"},{"origin":"https://github.com/DualSPHysics/DualSPHysics","visit":10,"date":"2022-06-23T18:35:43.055421+00:00","status":"full","snapshot":"e903beba429431ae7faf136ac774916c4702af7e","type":"git","metadata":{},"origin_visit_url":"https://archive.softwareheritage.org/api/1/origin/https://github.com/DualSPHysics/DualSPHysics/visit/10/","snapshot_url":"https://archive.softwareheritage.org/api/1/snapshot/e903beba429431ae7faf136ac774916c4702af7e/"},{"origin":"https://github.com/DualSPHysics/DualSPHysics","visit":9,"date":"2022-05-31T00:22:59.536318+00:00","status":"full","snapshot":"2a620e52ea06b7affebcedff1d4ef2a0ccf86234","type":"git","metadata":{},"origin_visit_url":"https://archive.softwareheritage.org/api/1/origin/https://github.com/DualSPHysics/DualSPHysics/visit/9/","snapshot_url":"https://archive.softwareheritage.org/api/1/snapshot/2a620e52ea06b7affebcedff1d4ef2a0ccf86234/"},{"origin":"https://github.com/DualSPHysics/DualSPHysics","visit":8,"date":"2022-03-18T13:48:27.566380+00:00","status":"full","snapshot":"a5a7464e07c58f8dc37fea4578a3f3e2fff502c2","type":"git","metadata":{},"origin_visit_url":"https://archive.softwareheritage.org/api/1/origin/https://github.com/DualSPHysics/DualSPHysics/visit/8/","snapshot_url":"https://archive.softwareheritage.org/api/1/snapshot/a5a7464e07c58f8dc37fea4578a3f3e2fff502c2/"},{"origin":"https://github.com/DualSPHysics/DualSPHysics","visit":7,"date":"2021-06-01T10:50:03.363749+00:00","status":"full","snapshot":"948b1f10ec434f28411d6aa80b7840d559097809","type":"git","metadata":{},"origin_visit_url":"https://archive.softwareheritage.org/api/1/origin/https://github.com/DualSPHysics/DualSPHysics/visit/7/","snapshot_url":"https://archive.softwareheritage.org/api/1/snapshot/948b1f10ec434f28411d6aa80b7840d559097809/"},{"origin":"https://github.com/DualSPHysics/DualSPHysics","visit":6,"date":"2018-12-13T02:31:03.386042+00:00","status":"full","snapshot":"be920777e1b880259aee7eaca421040df3b5b665","type":"git","metadata":{},"origin_visit_url":"https://archive.softwareheritage.org/api/1/origin/https://github.com/DualSPHysics/DualSPHysics/visit/6/","snapshot_url":"https://archive.softwareheritage.org/api/1/snapshot/be920777e1b880259aee7eaca421040df3b5b665/"},{"origin":"https://github.com/DualSPHysics/DualSPHysics","visit":5,"date":"2018-09-07T13:51:40.055945+00:00","status":"full","snapshot":"ba7b3f5342143d9ffd8477550a0a03154755413a","type":"git","metadata":{},"origin_visit_url":"https://archive.softwareheritage.org/api/1/origin/https://github.com/DualSPHysics/DualSPHysics/visit/5/","snapshot_url":"https://archive.softwareheritage.org/api/1/snapshot/ba7b3f5342143d9ffd8477550a0a03154755413a/"},{"origin":"https://github.com/DualSPHysics/DualSPHysics","visit":4,"date":"2018-09-05T16:59:45.473850+00:00","status":"full","snapshot":"ba7b3f5342143d9ffd8477550a0a03154755413a","type":"git","metadata":{},"origin_visit_url":"https://archive.softwareheritage.org/api/1/origin/https://github.com/DualSPHysics/DualSPHysics/visit/4/","snapshot_url":"https://archive.softwareheritage.org/api/1/snapshot/ba7b3f5342143d9ffd8477550a0a03154755413a/"},{"origin":"https://github.com/DualSPHysics/DualSPHysics","visit":3,"date":"2018-09-04T18:28:12.009269+00:00","status":"full","snapshot":"ba7b3f5342143d9ffd8477550a0a03154755413a","type":"git","metadata":{},"origin_visit_url":"https://archive.softwareheritage.org/api/1/origin/https://github.com/DualSPHysics/DualSPHysics/visit/3/","snapshot_url":"https://archive.softwareheritage.org/api/1/snapshot/ba7b3f5342143d9ffd8477550a0a03154755413a/"},{"origin":"https://github.com/DualSPHysics/DualSPHysics","visit":2,"date":"2018-09-01T05:37:10.747101+00:00","status":"full","snapshot":"ba7b3f5342143d9ffd8477550a0a03154755413a","type":"git","metadata":{},"origin_visit_url":"https://archive.softwareheritage.org/api/1/origin/https://github.com/DualSPHysics/DualSPHysics/visit/2/","snapshot_url":"https://archive.softwareheritage.org/api/1/snapshot/ba7b3f5342143d9ffd8477550a0a03154755413a/"}]
[{"origin":"https://github.com/DualSPHysics/DualSPHysics","visit":1,"date":"2018-07-07T21:42:31.526425+00:00","status":"full","snapshot":"a11622d694ceec80234a3352475e6ef53ad5149d","type":"git","metadata":{},"origin_visit_url":"https://archive.softwareheritage.org/api/1/origin/https://github.com/DualSPHysics/DualSPHysics/visit/1/","snapshot_url":"https://archive.softwareheritage.org/api/1/snapshot/a11622d694ceec80234a3352475e6ef53ad5149d/"}]
