{ "id": 111666996, "node_id": "MDEwOlJlcG9zaXRvcnkxMTE2NjY5OTY=", "name": "DualSPHysics", "full_name": "DualSPHysics/DualSPHysics", "private": false, "owner": { "login": "DualSPHysics", "id": 33895170, "node_id": "MDQ6VXNlcjMzODk1MTcw", "avatar_url": "https://avatars.githubusercontent.com/u/33895170?v=4", "gravatar_id": "", "url": "https://api.github.com/users/DualSPHysics", "html_url": "https://github.com/DualSPHysics", "followers_url": "https://api.github.com/users/DualSPHysics/followers", "following_url": "https://api.github.com/users/DualSPHysics/following{/other_user}", "gists_url": "https://api.github.com/users/DualSPHysics/gists{/gist_id}", "starred_url": "https://api.github.com/users/DualSPHysics/starred{/owner}{/repo}", "subscriptions_url": "https://api.github.com/users/DualSPHysics/subscriptions", "organizations_url": "https://api.github.com/users/DualSPHysics/orgs", "repos_url": "https://api.github.com/users/DualSPHysics/repos", "events_url": "https://api.github.com/users/DualSPHysics/events{/privacy}", "received_events_url": "https://api.github.com/users/DualSPHysics/received_events", "type": "User", "site_admin": false }, "html_url": "https://github.com/DualSPHysics/DualSPHysics", "description": "C++/CUDA/OpenMP based Smoothed Particle Hydrodynamics (SPH) Solver", "fork": false, "url": "https://api.github.com/repos/DualSPHysics/DualSPHysics", "forks_url": "https://api.github.com/repos/DualSPHysics/DualSPHysics/forks", "keys_url": "https://api.github.com/repos/DualSPHysics/DualSPHysics/keys{/key_id}", "collaborators_url": "https://api.github.com/repos/DualSPHysics/DualSPHysics/collaborators{/collaborator}", "teams_url": "https://api.github.com/repos/DualSPHysics/DualSPHysics/teams", "hooks_url": "https://api.github.com/repos/DualSPHysics/DualSPHysics/hooks", "issue_events_url": "https://api.github.com/repos/DualSPHysics/DualSPHysics/issues/events{/number}", "events_url": "https://api.github.com/repos/DualSPHysics/DualSPHysics/events", "assignees_url": "https://api.github.com/repos/DualSPHysics/DualSPHysics/assignees{/user}", "branches_url": "https://api.github.com/repos/DualSPHysics/DualSPHysics/branches{/branch}", "tags_url": "https://api.github.com/repos/DualSPHysics/DualSPHysics/tags", "blobs_url": "https://api.github.com/repos/DualSPHysics/DualSPHysics/git/blobs{/sha}", "git_tags_url": "https://api.github.com/repos/DualSPHysics/DualSPHysics/git/tags{/sha}", "git_refs_url": "https://api.github.com/repos/DualSPHysics/DualSPHysics/git/refs{/sha}", "trees_url": "https://api.github.com/repos/DualSPHysics/DualSPHysics/git/trees{/sha}", "statuses_url": "https://api.github.com/repos/DualSPHysics/DualSPHysics/statuses/{sha}", "languages_url": "https://api.github.com/repos/DualSPHysics/DualSPHysics/languages", "stargazers_url": "https://api.github.com/repos/DualSPHysics/DualSPHysics/stargazers", "contributors_url": "https://api.github.com/repos/DualSPHysics/DualSPHysics/contributors", "subscribers_url": "https://api.github.com/repos/DualSPHysics/DualSPHysics/subscribers", "subscription_url": "https://api.github.com/repos/DualSPHysics/DualSPHysics/subscription", "commits_url": "https://api.github.com/repos/DualSPHysics/DualSPHysics/commits{/sha}", "git_commits_url": "https://api.github.com/repos/DualSPHysics/DualSPHysics/git/commits{/sha}", "comments_url": "https://api.github.com/repos/DualSPHysics/DualSPHysics/comments{/number}", "issue_comment_url": "https://api.github.com/repos/DualSPHysics/DualSPHysics/issues/comments{/number}", "contents_url": "https://api.github.com/repos/DualSPHysics/DualSPHysics/contents/{+path}", "compare_url": "https://api.github.com/repos/DualSPHysics/DualSPHysics/compare/{base}...{head}", "merges_url": "https://api.github.com/repos/DualSPHysics/DualSPHysics/merges", "archive_url": "https://api.github.com/repos/DualSPHysics/DualSPHysics/{archive_format}{/ref}", "downloads_url": "https://api.github.com/repos/DualSPHysics/DualSPHysics/downloads", "issues_url": "https://api.github.com/repos/DualSPHysics/DualSPHysics/issues{/number}", "pulls_url": "https://api.github.com/repos/DualSPHysics/DualSPHysics/pulls{/number}", "milestones_url": "https://api.github.com/repos/DualSPHysics/DualSPHysics/milestones{/number}", "notifications_url": "https://api.github.com/repos/DualSPHysics/DualSPHysics/notifications{?since,all,participating}", "labels_url": "https://api.github.com/repos/DualSPHysics/DualSPHysics/labels{/name}", "releases_url": "https://api.github.com/repos/DualSPHysics/DualSPHysics/releases{/id}", "deployments_url": "https://api.github.com/repos/DualSPHysics/DualSPHysics/deployments", "created_at": "2017-11-22T10:00:57Z", "updated_at": "2023-02-08T08:48:20Z", "pushed_at": "2023-01-19T08:12:50Z", "git_url": "git://github.com/DualSPHysics/DualSPHysics.git", "ssh_url": "git@github.com:DualSPHysics/DualSPHysics.git", "clone_url": "https://github.com/DualSPHysics/DualSPHysics.git", "svn_url": "https://github.com/DualSPHysics/DualSPHysics", "homepage": null, "size": 1236875, "stargazers_count": 403, "watchers_count": 403, "language": "C++", "has_issues": true, "has_projects": true, "has_downloads": true, "has_wiki": true, "has_pages": false, "has_discussions": false, "forks_count": 168, "mirror_url": null, "archived": false, "disabled": false, "open_issues_count": 74, "license": { "key": "lgpl-2.1", "name": "GNU Lesser General Public License v2.1", "spdx_id": "LGPL-2.1", "url": "https://api.github.com/licenses/lgpl-2.1", "node_id": "MDc6TGljZW5zZTEx" }, "allow_forking": true, "is_template": false, "web_commit_signoff_required": false, "topics": [ ], "visibility": "public", "forks": 168, "open_issues": 74, "watchers": 403, "default_branch": "master", "permissions": { "admin": false, "maintain": false, "push": false, "triage": false, "pull": true }, "temp_clone_token": "", "network_count": 168, "subscribers_count": 57 }
