{ "id": 157099123, "node_id": "MDEwOlJlcG9zaXRvcnkxNTcwOTkxMjM=", "name": "pytorch-gpgpu-sim", "full_name": "gpgpu-sim/pytorch-gpgpu-sim", "private": false, "owner": { "login": "gpgpu-sim", "id": 8403205, "node_id": "MDEyOk9yZ2FuaXphdGlvbjg0MDMyMDU=", "avatar_url": "https://avatars.githubusercontent.com/u/8403205?v=4", "gravatar_id": "", "url": "https://api.github.com/users/gpgpu-sim", "html_url": "https://github.com/gpgpu-sim", "followers_url": "https://api.github.com/users/gpgpu-sim/followers", "following_url": "https://api.github.com/users/gpgpu-sim/following{/other_user}", "gists_url": "https://api.github.com/users/gpgpu-sim/gists{/gist_id}", "starred_url": "https://api.github.com/users/gpgpu-sim/starred{/owner}{/repo}", "subscriptions_url": "https://api.github.com/users/gpgpu-sim/subscriptions", "organizations_url": "https://api.github.com/users/gpgpu-sim/orgs", "repos_url": "https://api.github.com/users/gpgpu-sim/repos", "events_url": "https://api.github.com/users/gpgpu-sim/events{/privacy}", "received_events_url": "https://api.github.com/users/gpgpu-sim/received_events", "type": "Organization", "site_admin": false }, "html_url": "https://github.com/gpgpu-sim/pytorch-gpgpu-sim", "description": "Modified version of PyTorch able to work with changes to GPGPU-Sim", "fork": false, "url": "https://api.github.com/repos/gpgpu-sim/pytorch-gpgpu-sim", "forks_url": "https://api.github.com/repos/gpgpu-sim/pytorch-gpgpu-sim/forks", "keys_url": "https://api.github.com/repos/gpgpu-sim/pytorch-gpgpu-sim/keys{/key_id}", "collaborators_url": "https://api.github.com/repos/gpgpu-sim/pytorch-gpgpu-sim/collaborators{/collaborator}", "teams_url": "https://api.github.com/repos/gpgpu-sim/pytorch-gpgpu-sim/teams", "hooks_url": "https://api.github.com/repos/gpgpu-sim/pytorch-gpgpu-sim/hooks", "issue_events_url": "https://api.github.com/repos/gpgpu-sim/pytorch-gpgpu-sim/issues/events{/number}", "events_url": "https://api.github.com/repos/gpgpu-sim/pytorch-gpgpu-sim/events", "assignees_url": "https://api.github.com/repos/gpgpu-sim/pytorch-gpgpu-sim/assignees{/user}", "branches_url": "https://api.github.com/repos/gpgpu-sim/pytorch-gpgpu-sim/branches{/branch}", "tags_url": "https://api.github.com/repos/gpgpu-sim/pytorch-gpgpu-sim/tags", "blobs_url": "https://api.github.com/repos/gpgpu-sim/pytorch-gpgpu-sim/git/blobs{/sha}", "git_tags_url": "https://api.github.com/repos/gpgpu-sim/pytorch-gpgpu-sim/git/tags{/sha}", "git_refs_url": "https://api.github.com/repos/gpgpu-sim/pytorch-gpgpu-sim/git/refs{/sha}", "trees_url": "https://api.github.com/repos/gpgpu-sim/pytorch-gpgpu-sim/git/trees{/sha}", "statuses_url": "https://api.github.com/repos/gpgpu-sim/pytorch-gpgpu-sim/statuses/{sha}", "languages_url": "https://api.github.com/repos/gpgpu-sim/pytorch-gpgpu-sim/languages", "stargazers_url": "https://api.github.com/repos/gpgpu-sim/pytorch-gpgpu-sim/stargazers", "contributors_url": "https://api.github.com/repos/gpgpu-sim/pytorch-gpgpu-sim/contributors", "subscribers_url": "https://api.github.com/repos/gpgpu-sim/pytorch-gpgpu-sim/subscribers", "subscription_url": "https://api.github.com/repos/gpgpu-sim/pytorch-gpgpu-sim/subscription", "commits_url": "https://api.github.com/repos/gpgpu-sim/pytorch-gpgpu-sim/commits{/sha}", "git_commits_url": "https://api.github.com/repos/gpgpu-sim/pytorch-gpgpu-sim/git/commits{/sha}", "comments_url": "https://api.github.com/repos/gpgpu-sim/pytorch-gpgpu-sim/comments{/number}", "issue_comment_url": "https://api.github.com/repos/gpgpu-sim/pytorch-gpgpu-sim/issues/comments{/number}", "contents_url": "https://api.github.com/repos/gpgpu-sim/pytorch-gpgpu-sim/contents/{+path}", "compare_url": "https://api.github.com/repos/gpgpu-sim/pytorch-gpgpu-sim/compare/{base}...{head}", "merges_url": "https://api.github.com/repos/gpgpu-sim/pytorch-gpgpu-sim/merges", "archive_url": "https://api.github.com/repos/gpgpu-sim/pytorch-gpgpu-sim/{archive_format}{/ref}", "downloads_url": "https://api.github.com/repos/gpgpu-sim/pytorch-gpgpu-sim/downloads", "issues_url": "https://api.github.com/repos/gpgpu-sim/pytorch-gpgpu-sim/issues{/number}", "pulls_url": "https://api.github.com/repos/gpgpu-sim/pytorch-gpgpu-sim/pulls{/number}", "milestones_url": "https://api.github.com/repos/gpgpu-sim/pytorch-gpgpu-sim/milestones{/number}", "notifications_url": "https://api.github.com/repos/gpgpu-sim/pytorch-gpgpu-sim/notifications{?since,all,participating}", "labels_url": "https://api.github.com/repos/gpgpu-sim/pytorch-gpgpu-sim/labels{/name}", "releases_url": "https://api.github.com/repos/gpgpu-sim/pytorch-gpgpu-sim/releases{/id}", "deployments_url": "https://api.github.com/repos/gpgpu-sim/pytorch-gpgpu-sim/deployments", "created_at": "2018-11-11T16:37:58Z", "updated_at": "2022-10-28T02:50:43Z", "pushed_at": "2022-11-18T21:17:52Z", "git_url": "git://github.com/gpgpu-sim/pytorch-gpgpu-sim.git", "ssh_url": "git@github.com:gpgpu-sim/pytorch-gpgpu-sim.git", "clone_url": "https://github.com/gpgpu-sim/pytorch-gpgpu-sim.git", "svn_url": "https://github.com/gpgpu-sim/pytorch-gpgpu-sim", "homepage": null, "size": 12656, "stargazers_count": 31, "watchers_count": 31, "language": "C++", "has_issues": true, "has_projects": true, "has_downloads": true, "has_wiki": true, "has_pages": false, "has_discussions": false, "forks_count": 18, "mirror_url": null, "archived": false, "disabled": false, "open_issues_count": 5, "license": { "key": "other", "name": "Other", "spdx_id": "NOASSERTION", "url": null, "node_id": "MDc6TGljZW5zZTA=" }, "allow_forking": true, "is_template": false, "web_commit_signoff_required": false, "topics": [ ], "visibility": "public", "forks": 18, "open_issues": 5, "watchers": 31, "default_branch": "master", "permissions": { "admin": false, "maintain": false, "push": false, "triage": false, "pull": true }, "temp_clone_token": "", "organization": { "login": "gpgpu-sim", "id": 8403205, "node_id": "MDEyOk9yZ2FuaXphdGlvbjg0MDMyMDU=", "avatar_url": "https://avatars.githubusercontent.com/u/8403205?v=4", "gravatar_id": "", "url": "https://api.github.com/users/gpgpu-sim", "html_url": "https://github.com/gpgpu-sim", "followers_url": "https://api.github.com/users/gpgpu-sim/followers", "following_url": "https://api.github.com/users/gpgpu-sim/following{/other_user}", "gists_url": "https://api.github.com/users/gpgpu-sim/gists{/gist_id}", "starred_url": "https://api.github.com/users/gpgpu-sim/starred{/owner}{/repo}", "subscriptions_url": "https://api.github.com/users/gpgpu-sim/subscriptions", "organizations_url": "https://api.github.com/users/gpgpu-sim/orgs", "repos_url": "https://api.github.com/users/gpgpu-sim/repos", "events_url": "https://api.github.com/users/gpgpu-sim/events{/privacy}", "received_events_url": "https://api.github.com/users/gpgpu-sim/received_events", "type": "Organization", "site_admin": false }, "network_count": 18, "subscribers_count": 3 }
