{
  "original_uri": "https://github.com/DualSPHysics/DualSPHysics",
  "self": "http://localhost:1208/timemap/json/https://github.com/DualSPHysics/DualSPHysics",
  "mementos": {
    "list": [
      {
        "datetime": "2020-11-12T03:25:33Z",
        "uri": "https://web.archive.org/web/20201112032533/https://github.com/DualSPHysics/DualSPHysics"
      },
      {
        "datetime": "2020-11-15T01:56:38Z",
        "uri": "https://web.archive.org/web/20201115015638/https://github.com/DualSPHysics/DualSPHysics"
      },
      {
        "datetime": "2021-01-24T16:51:43Z",
        "uri": "https://web.archive.org/web/20210124165143/https://github.com/DualSPHysics/DualSPHysics"
      },
      {
        "datetime": "2022-03-26T20:49:03Z",
        "uri": "https://web.archive.org/web/20220326204903/https://github.com/DualSPHysics/DualSPHysics"
      }
    ],
    "first": {
      "datetime": "2020-11-12T03:25:33Z",
      "uri": "https://web.archive.org/web/20201112032533/https://github.com/DualSPHysics/DualSPHysics"
    },
    "last": {
      "datetime": "2022-03-26T20:49:03Z",
      "uri": "https://web.archive.org/web/20220326204903/https://github.com/DualSPHysics/DualSPHysics"
    }
  },
  "timemap_uri": {
    "link_format": "http://localhost:1208/timemap/link/https://github.com/DualSPHysics/DualSPHysics",
    "json_format": "http://localhost:1208/timemap/json/https://github.com/DualSPHysics/DualSPHysics",
    "cdxj_format": "http://localhost:1208/timemap/cdxj/https://github.com/DualSPHysics/DualSPHysics"
  },
  "timegate_uri": "http://localhost:1208/timegate/https://github.com/DualSPHysics/DualSPHysics"
}
