{
  "original_uri": "https://github.com/ARM-software/SCALE-Sim",
  "self": "http://localhost:1208/timemap/json/https://github.com/ARM-software/SCALE-Sim",
  "mementos": {
    "list": [
      {
        "datetime": "2018-02-14T20:01:04Z",
        "uri": "https://web.archive.org/web/20180214200104/https://github.com/ARM-software/SCALE-Sim"
      },
      {
        "datetime": "2018-02-14T20:16:24Z",
        "uri": "https://web.archive.org/web/20180214201624/https://github.com/ARM-software/SCALE-Sim"
      },
      {
        "datetime": "2018-02-14T20:31:47Z",
        "uri": "https://web.archive.org/web/20180214203147/https://github.com/ARM-software/SCALE-Sim"
      },
      {
        "datetime": "2018-03-05T14:46:10Z",
        "uri": "https://web.archive.org/web/20180305144610/https://github.com/ARM-software/SCALE-Sim"
      },
      {
        "datetime": "2018-03-05T15:02:11Z",
        "uri": "https://web.archive.org/web/20180305150211/https://github.com/ARM-software/SCALE-Sim"
      },
      {
        "datetime": "2018-06-17T17:07:54Z",
        "uri": "https://web.archive.org/web/20180617170754/https://github.com/ARM-software/SCALE-Sim"
      },
      {
        "datetime": "2020-06-19T05:44:07Z",
        "uri": "https://web.archive.org/web/20200619054407/https://github.com/ARM-software/SCALE-Sim"
      },
      {
        "datetime": "2020-09-12T02:30:48Z",
        "uri": "https://web.archive.org/web/20200912023048/https://github.com/ARM-software/SCALE-Sim"
      },
      {
        "datetime": "2020-11-09T02:34:15Z",
        "uri": "https://web.archive.org/web/20201109023415/https://github.com/ARM-software/SCALE-Sim"
      },
      {
        "datetime": "2021-06-15T11:30:34Z",
        "uri": "https://web.archive.org/web/20210615113034/https://github.com/ARM-software/SCALE-Sim"
      },
      {
        "datetime": "2021-06-15T11:30:34Z",
        "uri": "https://web.archive.org/web/20210615113034/https://github.com/ARM-software/SCALE-Sim"
      }
    ],
    "first": {
      "datetime": "2018-02-14T20:01:04Z",
      "uri": "https://web.archive.org/web/20180214200104/https://github.com/ARM-software/SCALE-Sim"
    },
    "last": {
      "datetime": "2021-06-15T11:30:34Z",
      "uri": "https://web.archive.org/web/20210615113034/https://github.com/ARM-software/SCALE-Sim"
    }
  },
  "timemap_uri": {
    "link_format": "http://localhost:1208/timemap/link/https://github.com/ARM-software/SCALE-Sim",
    "json_format": "http://localhost:1208/timemap/json/https://github.com/ARM-software/SCALE-Sim",
    "cdxj_format": "http://localhost:1208/timemap/cdxj/https://github.com/ARM-software/SCALE-Sim"
  },
  "timegate_uri": "http://localhost:1208/timegate/https://github.com/ARM-software/SCALE-Sim"
}
