{ "id": 22789533, "node_id": "MDEwOlJlcG9zaXRvcnkyMjc4OTUzMw==", "name": "gpgpu-sim_distribution", "full_name": "gpgpu-sim/gpgpu-sim_distribution", "private": false, "owner": { "login": "gpgpu-sim", "id": 8403205, "node_id": "MDEyOk9yZ2FuaXphdGlvbjg0MDMyMDU=", "avatar_url": "https://avatars.githubusercontent.com/u/8403205?v=4", "gravatar_id": "", "url": "https://api.github.com/users/gpgpu-sim", "html_url": "https://github.com/gpgpu-sim", "followers_url": "https://api.github.com/users/gpgpu-sim/followers", "following_url": "https://api.github.com/users/gpgpu-sim/following{/other_user}", "gists_url": "https://api.github.com/users/gpgpu-sim/gists{/gist_id}", "starred_url": "https://api.github.com/users/gpgpu-sim/starred{/owner}{/repo}", "subscriptions_url": "https://api.github.com/users/gpgpu-sim/subscriptions", "organizations_url": "https://api.github.com/users/gpgpu-sim/orgs", "repos_url": "https://api.github.com/users/gpgpu-sim/repos", "events_url": "https://api.github.com/users/gpgpu-sim/events{/privacy}", "received_events_url": "https://api.github.com/users/gpgpu-sim/received_events", "type": "Organization", "site_admin": false }, "html_url": "https://github.com/gpgpu-sim/gpgpu-sim_distribution", "description": "GPGPU-Sim provides a detailed simulation model of contemporary NVIDIA GPUs running CUDA and/or OpenCL workloads. It includes support for features such as TensorCores and CUDA Dynamic Parallelism as well as a performance visualization tool, AerialVisoin, and an integrated energy model, GPUWattch.", "fork": false, "url": "https://api.github.com/repos/gpgpu-sim/gpgpu-sim_distribution", "forks_url": "https://api.github.com/repos/gpgpu-sim/gpgpu-sim_distribution/forks", "keys_url": "https://api.github.com/repos/gpgpu-sim/gpgpu-sim_distribution/keys{/key_id}", "collaborators_url": "https://api.github.com/repos/gpgpu-sim/gpgpu-sim_distribution/collaborators{/collaborator}", "teams_url": "https://api.github.com/repos/gpgpu-sim/gpgpu-sim_distribution/teams", "hooks_url": "https://api.github.com/repos/gpgpu-sim/gpgpu-sim_distribution/hooks", "issue_events_url": "https://api.github.com/repos/gpgpu-sim/gpgpu-sim_distribution/issues/events{/number}", "events_url": "https://api.github.com/repos/gpgpu-sim/gpgpu-sim_distribution/events", "assignees_url": "https://api.github.com/repos/gpgpu-sim/gpgpu-sim_distribution/assignees{/user}", "branches_url": "https://api.github.com/repos/gpgpu-sim/gpgpu-sim_distribution/branches{/branch}", "tags_url": "https://api.github.com/repos/gpgpu-sim/gpgpu-sim_distribution/tags", "blobs_url": "https://api.github.com/repos/gpgpu-sim/gpgpu-sim_distribution/git/blobs{/sha}", "git_tags_url": "https://api.github.com/repos/gpgpu-sim/gpgpu-sim_distribution/git/tags{/sha}", "git_refs_url": "https://api.github.com/repos/gpgpu-sim/gpgpu-sim_distribution/git/refs{/sha}", "trees_url": "https://api.github.com/repos/gpgpu-sim/gpgpu-sim_distribution/git/trees{/sha}", "statuses_url": "https://api.github.com/repos/gpgpu-sim/gpgpu-sim_distribution/statuses/{sha}", "languages_url": "https://api.github.com/repos/gpgpu-sim/gpgpu-sim_distribution/languages", "stargazers_url": "https://api.github.com/repos/gpgpu-sim/gpgpu-sim_distribution/stargazers", "contributors_url": "https://api.github.com/repos/gpgpu-sim/gpgpu-sim_distribution/contributors", "subscribers_url": "https://api.github.com/repos/gpgpu-sim/gpgpu-sim_distribution/subscribers", "subscription_url": "https://api.github.com/repos/gpgpu-sim/gpgpu-sim_distribution/subscription", "commits_url": "https://api.github.com/repos/gpgpu-sim/gpgpu-sim_distribution/commits{/sha}", "git_commits_url": "https://api.github.com/repos/gpgpu-sim/gpgpu-sim_distribution/git/commits{/sha}", "comments_url": "https://api.github.com/repos/gpgpu-sim/gpgpu-sim_distribution/comments{/number}", "issue_comment_url": "https://api.github.com/repos/gpgpu-sim/gpgpu-sim_distribution/issues/comments{/number}", "contents_url": "https://api.github.com/repos/gpgpu-sim/gpgpu-sim_distribution/contents/{+path}", "compare_url": "https://api.github.com/repos/gpgpu-sim/gpgpu-sim_distribution/compare/{base}...{head}", "merges_url": "https://api.github.com/repos/gpgpu-sim/gpgpu-sim_distribution/merges", "archive_url": "https://api.github.com/repos/gpgpu-sim/gpgpu-sim_distribution/{archive_format}{/ref}", "downloads_url": "https://api.github.com/repos/gpgpu-sim/gpgpu-sim_distribution/downloads", "issues_url": "https://api.github.com/repos/gpgpu-sim/gpgpu-sim_distribution/issues{/number}", "pulls_url": "https://api.github.com/repos/gpgpu-sim/gpgpu-sim_distribution/pulls{/number}", "milestones_url": "https://api.github.com/repos/gpgpu-sim/gpgpu-sim_distribution/milestones{/number}", "notifications_url": "https://api.github.com/repos/gpgpu-sim/gpgpu-sim_distribution/notifications{?since,all,participating}", "labels_url": "https://api.github.com/repos/gpgpu-sim/gpgpu-sim_distribution/labels{/name}", "releases_url": "https://api.github.com/repos/gpgpu-sim/gpgpu-sim_distribution/releases{/id}", "deployments_url": "https://api.github.com/repos/gpgpu-sim/gpgpu-sim_distribution/deployments", "created_at": "2014-08-09T15:55:39Z", "updated_at": "2023-02-08T19:01:26Z", "pushed_at": "2023-02-10T19:16:02Z", "git_url": "git://github.com/gpgpu-sim/gpgpu-sim_distribution.git", "ssh_url": "git@github.com:gpgpu-sim/gpgpu-sim_distribution.git", "clone_url": "https://github.com/gpgpu-sim/gpgpu-sim_distribution.git", "svn_url": "https://github.com/gpgpu-sim/gpgpu-sim_distribution", "homepage": "", "size": 35016, "stargazers_count": 722, "watchers_count": 722, "language": "C++", "has_issues": true, "has_projects": true, "has_downloads": true, "has_wiki": true, "has_pages": false, "has_discussions": false, "forks_count": 387, "mirror_url": null, "archived": false, "disabled": false, "open_issues_count": 133, "license": { "key": "other", "name": "Other", "spdx_id": "NOASSERTION", "url": null, "node_id": "MDc6TGljZW5zZTA=" }, "allow_forking": true, "is_template": false, "web_commit_signoff_required": false, "topics": [ ], "visibility": "public", "forks": 387, "open_issues": 133, "watchers": 722, "default_branch": "master", "permissions": { "admin": false, "maintain": false, "push": false, "triage": false, "pull": true }, "temp_clone_token": "", "organization": { "login": "gpgpu-sim", "id": 8403205, "node_id": "MDEyOk9yZ2FuaXphdGlvbjg0MDMyMDU=", "avatar_url": "https://avatars.githubusercontent.com/u/8403205?v=4", "gravatar_id": "", "url": "https://api.github.com/users/gpgpu-sim", "html_url": "https://github.com/gpgpu-sim", "followers_url": "https://api.github.com/users/gpgpu-sim/followers", "following_url": "https://api.github.com/users/gpgpu-sim/following{/other_user}", "gists_url": "https://api.github.com/users/gpgpu-sim/gists{/gist_id}", "starred_url": "https://api.github.com/users/gpgpu-sim/starred{/owner}{/repo}", "subscriptions_url": "https://api.github.com/users/gpgpu-sim/subscriptions", "organizations_url": "https://api.github.com/users/gpgpu-sim/orgs", "repos_url": "https://api.github.com/users/gpgpu-sim/repos", "events_url": "https://api.github.com/users/gpgpu-sim/events{/privacy}", "received_events_url": "https://api.github.com/users/gpgpu-sim/received_events", "type": "Organization", "site_admin": false }, "network_count": 387, "subscribers_count": 46 }
