{ "id": 176582812, "node_id": "MDEwOlJlcG9zaXRvcnkxNzY1ODI4MTI=", "name": "WW3", "full_name": "NOAA-EMC/WW3", "private": false, "owner": { "login": "NOAA-EMC", "id": 37810995, "node_id": "MDEyOk9yZ2FuaXphdGlvbjM3ODEwOTk1", "avatar_url": "https://avatars.githubusercontent.com/u/37810995?v=4", "gravatar_id": "", "url": "https://api.github.com/users/NOAA-EMC", "html_url": "https://github.com/NOAA-EMC", "followers_url": "https://api.github.com/users/NOAA-EMC/followers", "following_url": "https://api.github.com/users/NOAA-EMC/following{/other_user}", "gists_url": "https://api.github.com/users/NOAA-EMC/gists{/gist_id}", "starred_url": "https://api.github.com/users/NOAA-EMC/starred{/owner}{/repo}", "subscriptions_url": "https://api.github.com/users/NOAA-EMC/subscriptions", "organizations_url": "https://api.github.com/users/NOAA-EMC/orgs", "repos_url": "https://api.github.com/users/NOAA-EMC/repos", "events_url": "https://api.github.com/users/NOAA-EMC/events{/privacy}", "received_events_url": "https://api.github.com/users/NOAA-EMC/received_events", "type": "Organization", "site_admin": false }, "html_url": "https://github.com/NOAA-EMC/WW3", "description": "WAVEWATCH III", "fork": false, "url": "https://api.github.com/repos/NOAA-EMC/WW3", "forks_url": "https://api.github.com/repos/NOAA-EMC/WW3/forks", "keys_url": "https://api.github.com/repos/NOAA-EMC/WW3/keys{/key_id}", "collaborators_url": "https://api.github.com/repos/NOAA-EMC/WW3/collaborators{/collaborator}", "teams_url": "https://api.github.com/repos/NOAA-EMC/WW3/teams", "hooks_url": "https://api.github.com/repos/NOAA-EMC/WW3/hooks", "issue_events_url": "https://api.github.com/repos/NOAA-EMC/WW3/issues/events{/number}", "events_url": "https://api.github.com/repos/NOAA-EMC/WW3/events", "assignees_url": "https://api.github.com/repos/NOAA-EMC/WW3/assignees{/user}", "branches_url": "https://api.github.com/repos/NOAA-EMC/WW3/branches{/branch}", "tags_url": "https://api.github.com/repos/NOAA-EMC/WW3/tags", "blobs_url": "https://api.github.com/repos/NOAA-EMC/WW3/git/blobs{/sha}", "git_tags_url": "https://api.github.com/repos/NOAA-EMC/WW3/git/tags{/sha}", "git_refs_url": "https://api.github.com/repos/NOAA-EMC/WW3/git/refs{/sha}", "trees_url": "https://api.github.com/repos/NOAA-EMC/WW3/git/trees{/sha}", "statuses_url": "https://api.github.com/repos/NOAA-EMC/WW3/statuses/{sha}", "languages_url": "https://api.github.com/repos/NOAA-EMC/WW3/languages", "stargazers_url": "https://api.github.com/repos/NOAA-EMC/WW3/stargazers", "contributors_url": "https://api.github.com/repos/NOAA-EMC/WW3/contributors", "subscribers_url": "https://api.github.com/repos/NOAA-EMC/WW3/subscribers", "subscription_url": "https://api.github.com/repos/NOAA-EMC/WW3/subscription", "commits_url": "https://api.github.com/repos/NOAA-EMC/WW3/commits{/sha}", "git_commits_url": "https://api.github.com/repos/NOAA-EMC/WW3/git/commits{/sha}", "comments_url": "https://api.github.com/repos/NOAA-EMC/WW3/comments{/number}", "issue_comment_url": "https://api.github.com/repos/NOAA-EMC/WW3/issues/comments{/number}", "contents_url": "https://api.github.com/repos/NOAA-EMC/WW3/contents/{+path}", "compare_url": "https://api.github.com/repos/NOAA-EMC/WW3/compare/{base}...{head}", "merges_url": "https://api.github.com/repos/NOAA-EMC/WW3/merges", "archive_url": "https://api.github.com/repos/NOAA-EMC/WW3/{archive_format}{/ref}", "downloads_url": "https://api.github.com/repos/NOAA-EMC/WW3/downloads", "issues_url": "https://api.github.com/repos/NOAA-EMC/WW3/issues{/number}", "pulls_url": "https://api.github.com/repos/NOAA-EMC/WW3/pulls{/number}", "milestones_url": "https://api.github.com/repos/NOAA-EMC/WW3/milestones{/number}", "notifications_url": "https://api.github.com/repos/NOAA-EMC/WW3/notifications{?since,all,participating}", "labels_url": "https://api.github.com/repos/NOAA-EMC/WW3/labels{/name}", "releases_url": "https://api.github.com/repos/NOAA-EMC/WW3/releases{/id}", "deployments_url": "https://api.github.com/repos/NOAA-EMC/WW3/deployments", "created_at": "2019-03-19T19:17:58Z", "updated_at": "2023-01-26T02:30:27Z", "pushed_at": "2023-02-10T22:44:40Z", "git_url": "git://github.com/NOAA-EMC/WW3.git", "ssh_url": "git@github.com:NOAA-EMC/WW3.git", "clone_url": "https://github.com/NOAA-EMC/WW3.git", "svn_url": "https://github.com/NOAA-EMC/WW3", "homepage": "", "size": 71497, "stargazers_count": 190, "watchers_count": 190, "language": "Fortran", "has_issues": true, "has_projects": true, "has_downloads": true, "has_wiki": true, "has_pages": false, "has_discussions": true, "forks_count": 366, "mirror_url": null, "archived": false, "disabled": false, "open_issues_count": 134, "license": { "key": "other", "name": "Other", "spdx_id": "NOASSERTION", "url": null, "node_id": "MDc6TGljZW5zZTA=" }, "allow_forking": true, "is_template": false, "web_commit_signoff_required": false, "topics": [ ], "visibility": "public", "forks": 366, "open_issues": 134, "watchers": 190, "default_branch": "develop", "permissions": { "admin": false, "maintain": false, "push": false, "triage": false, "pull": true }, "temp_clone_token": "", "organization": { "login": "NOAA-EMC", "id": 37810995, "node_id": "MDEyOk9yZ2FuaXphdGlvbjM3ODEwOTk1", "avatar_url": "https://avatars.githubusercontent.com/u/37810995?v=4", "gravatar_id": "", "url": "https://api.github.com/users/NOAA-EMC", "html_url": "https://github.com/NOAA-EMC", "followers_url": "https://api.github.com/users/NOAA-EMC/followers", "following_url": "https://api.github.com/users/NOAA-EMC/following{/other_user}", "gists_url": "https://api.github.com/users/NOAA-EMC/gists{/gist_id}", "starred_url": "https://api.github.com/users/NOAA-EMC/starred{/owner}{/repo}", "subscriptions_url": "https://api.github.com/users/NOAA-EMC/subscriptions", "organizations_url": "https://api.github.com/users/NOAA-EMC/orgs", "repos_url": "https://api.github.com/users/NOAA-EMC/repos", "events_url": "https://api.github.com/users/NOAA-EMC/events{/privacy}", "received_events_url": "https://api.github.com/users/NOAA-EMC/received_events", "type": "Organization", "site_admin": false }, "network_count": 366, "subscribers_count": 49 }
