{ "id": 100759557, "node_id": "MDEwOlJlcG9zaXRvcnkxMDA3NTk1NTc=", "name": "gpgpu-sim_simulations", "full_name": "gpgpu-sim/gpgpu-sim_simulations", "private": false, "owner": { "login": "gpgpu-sim", "id": 8403205, "node_id": "MDEyOk9yZ2FuaXphdGlvbjg0MDMyMDU=", "avatar_url": "https://avatars.githubusercontent.com/u/8403205?v=4", "gravatar_id": "", "url": "https://api.github.com/users/gpgpu-sim", "html_url": "https://github.com/gpgpu-sim", "followers_url": "https://api.github.com/users/gpgpu-sim/followers", "following_url": "https://api.github.com/users/gpgpu-sim/following{/other_user}", "gists_url": "https://api.github.com/users/gpgpu-sim/gists{/gist_id}", "starred_url": "https://api.github.com/users/gpgpu-sim/starred{/owner}{/repo}", "subscriptions_url": "https://api.github.com/users/gpgpu-sim/subscriptions", "organizations_url": "https://api.github.com/users/gpgpu-sim/orgs", "repos_url": "https://api.github.com/users/gpgpu-sim/repos", "events_url": "https://api.github.com/users/gpgpu-sim/events{/privacy}", "received_events_url": "https://api.github.com/users/gpgpu-sim/received_events", "type": "Organization", "site_admin": false }, "html_url": "https://github.com/gpgpu-sim/gpgpu-sim_simulations", "description": "A repository that compliments gpgpu-sim, providing automated regression scripts, simulation launching utilities and the code + arguments for simulations that complete in a reasonable amount of time on GPGPU-Sim.", "fork": false, "url": "https://api.github.com/repos/gpgpu-sim/gpgpu-sim_simulations", "forks_url": "https://api.github.com/repos/gpgpu-sim/gpgpu-sim_simulations/forks", "keys_url": "https://api.github.com/repos/gpgpu-sim/gpgpu-sim_simulations/keys{/key_id}", "collaborators_url": "https://api.github.com/repos/gpgpu-sim/gpgpu-sim_simulations/collaborators{/collaborator}", "teams_url": "https://api.github.com/repos/gpgpu-sim/gpgpu-sim_simulations/teams", "hooks_url": "https://api.github.com/repos/gpgpu-sim/gpgpu-sim_simulations/hooks", "issue_events_url": "https://api.github.com/repos/gpgpu-sim/gpgpu-sim_simulations/issues/events{/number}", "events_url": "https://api.github.com/repos/gpgpu-sim/gpgpu-sim_simulations/events", "assignees_url": "https://api.github.com/repos/gpgpu-sim/gpgpu-sim_simulations/assignees{/user}", "branches_url": "https://api.github.com/repos/gpgpu-sim/gpgpu-sim_simulations/branches{/branch}", "tags_url": "https://api.github.com/repos/gpgpu-sim/gpgpu-sim_simulations/tags", "blobs_url": "https://api.github.com/repos/gpgpu-sim/gpgpu-sim_simulations/git/blobs{/sha}", "git_tags_url": "https://api.github.com/repos/gpgpu-sim/gpgpu-sim_simulations/git/tags{/sha}", "git_refs_url": "https://api.github.com/repos/gpgpu-sim/gpgpu-sim_simulations/git/refs{/sha}", "trees_url": "https://api.github.com/repos/gpgpu-sim/gpgpu-sim_simulations/git/trees{/sha}", "statuses_url": "https://api.github.com/repos/gpgpu-sim/gpgpu-sim_simulations/statuses/{sha}", "languages_url": "https://api.github.com/repos/gpgpu-sim/gpgpu-sim_simulations/languages", "stargazers_url": "https://api.github.com/repos/gpgpu-sim/gpgpu-sim_simulations/stargazers", "contributors_url": "https://api.github.com/repos/gpgpu-sim/gpgpu-sim_simulations/contributors", "subscribers_url": "https://api.github.com/repos/gpgpu-sim/gpgpu-sim_simulations/subscribers", "subscription_url": "https://api.github.com/repos/gpgpu-sim/gpgpu-sim_simulations/subscription", "commits_url": "https://api.github.com/repos/gpgpu-sim/gpgpu-sim_simulations/commits{/sha}", "git_commits_url": "https://api.github.com/repos/gpgpu-sim/gpgpu-sim_simulations/git/commits{/sha}", "comments_url": "https://api.github.com/repos/gpgpu-sim/gpgpu-sim_simulations/comments{/number}", "issue_comment_url": "https://api.github.com/repos/gpgpu-sim/gpgpu-sim_simulations/issues/comments{/number}", "contents_url": "https://api.github.com/repos/gpgpu-sim/gpgpu-sim_simulations/contents/{+path}", "compare_url": "https://api.github.com/repos/gpgpu-sim/gpgpu-sim_simulations/compare/{base}...{head}", "merges_url": "https://api.github.com/repos/gpgpu-sim/gpgpu-sim_simulations/merges", "archive_url": "https://api.github.com/repos/gpgpu-sim/gpgpu-sim_simulations/{archive_format}{/ref}", "downloads_url": "https://api.github.com/repos/gpgpu-sim/gpgpu-sim_simulations/downloads", "issues_url": "https://api.github.com/repos/gpgpu-sim/gpgpu-sim_simulations/issues{/number}", "pulls_url": "https://api.github.com/repos/gpgpu-sim/gpgpu-sim_simulations/pulls{/number}", "milestones_url": "https://api.github.com/repos/gpgpu-sim/gpgpu-sim_simulations/milestones{/number}", "notifications_url": "https://api.github.com/repos/gpgpu-sim/gpgpu-sim_simulations/notifications{?since,all,participating}", "labels_url": "https://api.github.com/repos/gpgpu-sim/gpgpu-sim_simulations/labels{/name}", "releases_url": "https://api.github.com/repos/gpgpu-sim/gpgpu-sim_simulations/releases{/id}", "deployments_url": "https://api.github.com/repos/gpgpu-sim/gpgpu-sim_simulations/deployments", "created_at": "2017-08-19T00:30:30Z", "updated_at": "2023-01-28T08:58:38Z", "pushed_at": "2020-08-22T20:18:28Z", "git_url": "git://github.com/gpgpu-sim/gpgpu-sim_simulations.git", "ssh_url": "git@github.com:gpgpu-sim/gpgpu-sim_simulations.git", "clone_url": "https://github.com/gpgpu-sim/gpgpu-sim_simulations.git", "svn_url": "https://github.com/gpgpu-sim/gpgpu-sim_simulations", "homepage": null, "size": 74252, "stargazers_count": 40, "watchers_count": 40, "language": "Cuda", "has_issues": false, "has_projects": true, "has_downloads": true, "has_wiki": true, "has_pages": false, "has_discussions": false, "forks_count": 51, "mirror_url": null, "archived": false, "disabled": false, "open_issues_count": 2, "license": { "key": "bsd-2-clause", "name": "BSD 2-Clause \"Simplified\" License", "spdx_id": "BSD-2-Clause", "url": "https://api.github.com/licenses/bsd-2-clause", "node_id": "MDc6TGljZW5zZTQ=" }, "allow_forking": true, "is_template": false, "web_commit_signoff_required": false, "topics": [ ], "visibility": "public", "forks": 51, "open_issues": 2, "watchers": 40, "default_branch": "master", "permissions": { "admin": false, "maintain": false, "push": false, "triage": false, "pull": true }, "temp_clone_token": "", "organization": { "login": "gpgpu-sim", "id": 8403205, "node_id": "MDEyOk9yZ2FuaXphdGlvbjg0MDMyMDU=", "avatar_url": "https://avatars.githubusercontent.com/u/8403205?v=4", "gravatar_id": "", "url": "https://api.github.com/users/gpgpu-sim", "html_url": "https://github.com/gpgpu-sim", "followers_url": "https://api.github.com/users/gpgpu-sim/followers", "following_url": "https://api.github.com/users/gpgpu-sim/following{/other_user}", "gists_url": "https://api.github.com/users/gpgpu-sim/gists{/gist_id}", "starred_url": "https://api.github.com/users/gpgpu-sim/starred{/owner}{/repo}", "subscriptions_url": "https://api.github.com/users/gpgpu-sim/subscriptions", "organizations_url": "https://api.github.com/users/gpgpu-sim/orgs", "repos_url": "https://api.github.com/users/gpgpu-sim/repos", "events_url": "https://api.github.com/users/gpgpu-sim/events{/privacy}", "received_events_url": "https://api.github.com/users/gpgpu-sim/received_events", "type": "Organization", "site_admin": false }, "network_count": 51, "subscribers_count": 9 }
