{ "id": 119879132, "node_id": "MDEwOlJlcG9zaXRvcnkxMTk4NzkxMzI=", "name": "SCALE-Sim", "full_name": "ARM-software/SCALE-Sim", "private": false, "owner": { "login": "ARM-software", "id": 5690313, "node_id": "MDEyOk9yZ2FuaXphdGlvbjU2OTAzMTM=", "avatar_url": "https://avatars.githubusercontent.com/u/5690313?v=4", "gravatar_id": "", "url": "https://api.github.com/users/ARM-software", "html_url": "https://github.com/ARM-software", "followers_url": "https://api.github.com/users/ARM-software/followers", "following_url": "https://api.github.com/users/ARM-software/following{/other_user}", "gists_url": "https://api.github.com/users/ARM-software/gists{/gist_id}", "starred_url": "https://api.github.com/users/ARM-software/starred{/owner}{/repo}", "subscriptions_url": "https://api.github.com/users/ARM-software/subscriptions", "organizations_url": "https://api.github.com/users/ARM-software/orgs", "repos_url": "https://api.github.com/users/ARM-software/repos", "events_url": "https://api.github.com/users/ARM-software/events{/privacy}", "received_events_url": "https://api.github.com/users/ARM-software/received_events", "type": "Organization", "site_admin": false }, "html_url": "https://github.com/ARM-software/SCALE-Sim", "description": null, "fork": false, "url": "https://api.github.com/repos/ARM-software/SCALE-Sim", "forks_url": "https://api.github.com/repos/ARM-software/SCALE-Sim/forks", "keys_url": "https://api.github.com/repos/ARM-software/SCALE-Sim/keys{/key_id}", "collaborators_url": "https://api.github.com/repos/ARM-software/SCALE-Sim/collaborators{/collaborator}", "teams_url": "https://api.github.com/repos/ARM-software/SCALE-Sim/teams", "hooks_url": "https://api.github.com/repos/ARM-software/SCALE-Sim/hooks", "issue_events_url": "https://api.github.com/repos/ARM-software/SCALE-Sim/issues/events{/number}", "events_url": "https://api.github.com/repos/ARM-software/SCALE-Sim/events", "assignees_url": "https://api.github.com/repos/ARM-software/SCALE-Sim/assignees{/user}", "branches_url": "https://api.github.com/repos/ARM-software/SCALE-Sim/branches{/branch}", "tags_url": "https://api.github.com/repos/ARM-software/SCALE-Sim/tags", "blobs_url": "https://api.github.com/repos/ARM-software/SCALE-Sim/git/blobs{/sha}", "git_tags_url": "https://api.github.com/repos/ARM-software/SCALE-Sim/git/tags{/sha}", "git_refs_url": "https://api.github.com/repos/ARM-software/SCALE-Sim/git/refs{/sha}", "trees_url": "https://api.github.com/repos/ARM-software/SCALE-Sim/git/trees{/sha}", "statuses_url": "https://api.github.com/repos/ARM-software/SCALE-Sim/statuses/{sha}", "languages_url": "https://api.github.com/repos/ARM-software/SCALE-Sim/languages", "stargazers_url": "https://api.github.com/repos/ARM-software/SCALE-Sim/stargazers", "contributors_url": "https://api.github.com/repos/ARM-software/SCALE-Sim/contributors", "subscribers_url": "https://api.github.com/repos/ARM-software/SCALE-Sim/subscribers", "subscription_url": "https://api.github.com/repos/ARM-software/SCALE-Sim/subscription", "commits_url": "https://api.github.com/repos/ARM-software/SCALE-Sim/commits{/sha}", "git_commits_url": "https://api.github.com/repos/ARM-software/SCALE-Sim/git/commits{/sha}", "comments_url": "https://api.github.com/repos/ARM-software/SCALE-Sim/comments{/number}", "issue_comment_url": "https://api.github.com/repos/ARM-software/SCALE-Sim/issues/comments{/number}", "contents_url": "https://api.github.com/repos/ARM-software/SCALE-Sim/contents/{+path}", "compare_url": "https://api.github.com/repos/ARM-software/SCALE-Sim/compare/{base}...{head}", "merges_url": "https://api.github.com/repos/ARM-software/SCALE-Sim/merges", "archive_url": "https://api.github.com/repos/ARM-software/SCALE-Sim/{archive_format}{/ref}", "downloads_url": "https://api.github.com/repos/ARM-software/SCALE-Sim/downloads", "issues_url": "https://api.github.com/repos/ARM-software/SCALE-Sim/issues{/number}", "pulls_url": "https://api.github.com/repos/ARM-software/SCALE-Sim/pulls{/number}", "milestones_url": "https://api.github.com/repos/ARM-software/SCALE-Sim/milestones{/number}", "notifications_url": "https://api.github.com/repos/ARM-software/SCALE-Sim/notifications{?since,all,participating}", "labels_url": "https://api.github.com/repos/ARM-software/SCALE-Sim/labels{/name}", "releases_url": "https://api.github.com/repos/ARM-software/SCALE-Sim/releases{/id}", "deployments_url": "https://api.github.com/repos/ARM-software/SCALE-Sim/deployments", "created_at": "2018-02-01T18:55:22Z", "updated_at": "2023-01-19T03:18:40Z", "pushed_at": "2021-12-15T18:10:26Z", "git_url": "git://github.com/ARM-software/SCALE-Sim.git", "ssh_url": "git@github.com:ARM-software/SCALE-Sim.git", "clone_url": "https://github.com/ARM-software/SCALE-Sim.git", "svn_url": "https://github.com/ARM-software/SCALE-Sim", "homepage": null, "size": 1260, "stargazers_count": 284, "watchers_count": 284, "language": "Python", "has_issues": true, "has_projects": true, "has_downloads": true, "has_wiki": true, "has_pages": false, "has_discussions": false, "forks_count": 140, "mirror_url": null, "archived": false, "disabled": false, "open_issues_count": 18, "license": { "key": "mit", "name": "MIT License", "spdx_id": "MIT", "url": "https://api.github.com/licenses/mit", "node_id": "MDc6TGljZW5zZTEz" }, "allow_forking": true, "is_template": false, "web_commit_signoff_required": false, "topics": [ ], "visibility": "public", "forks": 140, "open_issues": 18, "watchers": 284, "default_branch": "master", "permissions": { "admin": false, "maintain": false, "push": false, "triage": false, "pull": true }, "temp_clone_token": "", "organization": { "login": "ARM-software", "id": 5690313, "node_id": "MDEyOk9yZ2FuaXphdGlvbjU2OTAzMTM=", "avatar_url": "https://avatars.githubusercontent.com/u/5690313?v=4", "gravatar_id": "", "url": "https://api.github.com/users/ARM-software", "html_url": "https://github.com/ARM-software", "followers_url": "https://api.github.com/users/ARM-software/followers", "following_url": "https://api.github.com/users/ARM-software/following{/other_user}", "gists_url": "https://api.github.com/users/ARM-software/gists{/gist_id}", "starred_url": "https://api.github.com/users/ARM-software/starred{/owner}{/repo}", "subscriptions_url": "https://api.github.com/users/ARM-software/subscriptions", "organizations_url": "https://api.github.com/users/ARM-software/orgs", "repos_url": "https://api.github.com/users/ARM-software/repos", "events_url": "https://api.github.com/users/ARM-software/events{/privacy}", "received_events_url": "https://api.github.com/users/ARM-software/received_events", "type": "Organization", "site_admin": false }, "network_count": 140, "subscribers_count": 25 }
