[{"origin":"https://github.com/ARM-software/SCALE-Sim","visit":5,"date":"2021-12-29T15:30:20.636217+00:00","status":"full","snapshot":"05e0a4e10510a8534c7a68bdcd36bc7b312dd1f0","type":"git","metadata":{},"origin_visit_url":"https://archive.softwareheritage.org/api/1/origin/https://github.com/ARM-software/SCALE-Sim/visit/5/","snapshot_url":"https://archive.softwareheritage.org/api/1/snapshot/05e0a4e10510a8534c7a68bdcd36bc7b312dd1f0/"},{"origin":"https://github.com/ARM-software/SCALE-Sim","visit":4,"date":"2021-07-23T02:39:43.171019+00:00","status":"full","snapshot":"de15ef5f98aead3f4c0ab2f7fb6a032a285e7dae","type":"git","metadata":{},"origin_visit_url":"https://archive.softwareheritage.org/api/1/origin/https://github.com/ARM-software/SCALE-Sim/visit/4/","snapshot_url":"https://archive.softwareheritage.org/api/1/snapshot/de15ef5f98aead3f4c0ab2f7fb6a032a285e7dae/"},{"origin":"https://github.com/ARM-software/SCALE-Sim","visit":3,"date":"2021-03-22T00:35:54.314655+00:00","status":"full","snapshot":"c44973920f6c112688c0390098b5c5cc19ee9930","type":"git","metadata":{},"origin_visit_url":"https://archive.softwareheritage.org/api/1/origin/https://github.com/ARM-software/SCALE-Sim/visit/3/","snapshot_url":"https://archive.softwareheritage.org/api/1/snapshot/c44973920f6c112688c0390098b5c5cc19ee9930/"},{"origin":"https://github.com/ARM-software/SCALE-Sim","visit":2,"date":"2021-01-06T09:47:11.878347+00:00","status":"full","snapshot":"c44973920f6c112688c0390098b5c5cc19ee9930","type":"git","metadata":{},"origin_visit_url":"https://archive.softwareheritage.org/api/1/origin/https://github.com/ARM-software/SCALE-Sim/visit/2/","snapshot_url":"https://archive.softwareheritage.org/api/1/snapshot/c44973920f6c112688c0390098b5c5cc19ee9930/"},{"origin":"https://github.com/ARM-software/SCALE-Sim","visit":1,"date":"2020-02-11T22:11:30.933213+00:00","status":"full","snapshot":"bf8d3f52b4af1ecc2469fb9679af3547fc7fe0d2","type":"git","metadata":{},"origin_visit_url":"https://archive.softwareheritage.org/api/1/origin/https://github.com/ARM-software/SCALE-Sim/visit/1/","snapshot_url":"https://archive.softwareheritage.org/api/1/snapshot/bf8d3f52b4af1ecc2469fb9679af3547fc7fe0d2/"}]
