{"exception":"NotFoundExc","reason":"Origin with url https://github.com/iitm-sysdl/SCALE-Sim-FuSe not found!"}
